[TITLE]
Q:\CENTRE CONTROL OPERATIU\R+D+i\EFFINET\Pilot telelectura\Sectors telelectura Gavà-Castellfedels\Models PICCOLO\Canyars.dat                                                                                                                                    

[JUNCTIONS]
;ID              	Elev        	Demand      	Pattern        
 CE00012422      	6.285       	            	                	;080CAS
 CE00012424      	9.318       	            	                	;080CAS
 CE00012527      	15.537      	            	                	;080CAS
 CE00012528      	15.445      	            	                	;080CAS
 CE00012529      	17.95       	            	                	;080CAS
 CE00012535      	5.776       	            	                	;080CAS
 CE00012536      	5.084       	            	                	;080CAS
 CE00012537      	5.249       	            	                	;080CAS
 CE00012538      	5.311       	            	                	;080CAS
 CE00012540      	8.215       	            	                	;080CAS
 CE00012541      	7.78        	            	                	;080CAS
 CE00012785      	4.937       	            	                	;080CAS
 CE00013501      	4.825       	            	                	;080CAS
 CE00013502      	5.038       	            	                	;080CAS
 CE00013541      	10.32       	            	                	;080CAS
 CE00013574      	7.306       	            	                	;080CAS
 CE00013575      	10.142      	            	                	;080CAS
 CE00013620      	6.882       	            	                	;080CAS
 CE00013621      	7.716       	            	                	;080CAS
 CE00013622      	8.415       	            	                	;080CAS
 CE00013625      	9.489       	            	                	;080CAS
 CE00013626      	9.566       	            	                	;080CAS
 CE00025830      	8.201       	            	                	;080CAS
 CE00025831      	7.86        	            	                	;080CAS
 CE00025832      	12.783      	            	                	;080CAS
 CE00025833      	9.959       	            	                	;080CAS
 CE00025835      	8.971       	            	                	;080CAS
 CE00025836      	8.997       	            	                	;080CAS
 CE00078683      	7.009       	            	                	;080CAS
 CE00079001      	13.346      	            	                	;080CAS
 CE00142840      	6.3         	            	                	;080CAS
 CE00163539      	10.675      	            	                	;080CAS
 HI00003973      	5.091       	            	                	;080CAS
 HI00003974      	8.229       	            	                	;080CAS
 HI00003975      	5.933       	            	                	;080CAS
 HI00004092      	9.7         	            	                	;080CAS
 HI00004100      	7.173       	            	                	;080CAS
 HI00004101      	6.975       	            	                	;080CAS
 HI00004102      	9.459       	            	                	;080CAS
 HI00008639      	12.975      	            	                	;080CAS
 HI00008640      	9.117       	            	                	;080CAS
 HI00017288      	5.989       	            	                	;080CAS
 HI00060136      	7.996       	            	                	;080CAS
 HI00060149      	5.445       	            	                	;080CAS
 HI00081977      	9.527       	            	                	;080CAS
 RM00135360      	6.708       	            	                	;080CAS
 RM00135361      	6.275       	            	                	;080CAS
 RM00135362      	6.276       	            	                	;080CAS
 RM00135363      	6.684       	            	                	;080CAS
 RM00135364      	6.664       	            	                	;080CAS
 RM00135370      	9.11        	            	                	;080CAS
 RM00135371      	9.069       	            	                	;080CAS
 RM00135372      	9.015       	            	                	;080CAS
 RM00135373      	8.991       	            	                	;080CAS
 RM00135374      	9.383       	            	                	;080CAS
 RM00135375      	9.453       	            	                	;080CAS
 RM00135376      	9.323       	            	                	;080CAS
 RM00135377      	9.424       	            	                	;080CAS
 RM00135378      	7.093       	            	                	;080CAS
 RM00135379      	7.09        	            	                	;080CAS
 RM00135380      	6.921       	            	                	;080CAS
 RM00135381      	6.917       	            	                	;080CAS
 RM00135383      	6.82        	            	                	;080CAS
 RM00135384      	6.887       	            	                	;080CAS
 RM00135385      	6.811       	            	                	;080CAS
 RM00135386      	6.802       	            	                	;080CAS
 RM00135387      	6.714       	            	                	;080CAS
 RM00135388      	6.592       	            	                	;080CAS
 RM00135389      	6.497       	            	                	;080CAS
 RM00135390      	6.692       	            	                	;080CAS
 RM00135391      	6.691       	            	                	;080CAS
 RM00135392      	6.305       	            	                	;080CAS
 RM00135393      	6.344       	            	                	;080CAS
 RM00135394      	6.379       	            	                	;080CAS
 RM00135395      	6.037       	            	                	;080CAS
 RM00135396      	6.845       	            	                	;080CAS
 RM00135397      	5.818       	            	                	;080CAS
 RM00135398      	5.999       	            	                	;080CAS
 RM00135400      	5.7         	            	                	;080CAS
 RM00135401      	5.76        	            	                	;080CAS
 RM00135402      	5.774       	            	                	;080CAS
 RM00135403      	5.692       	            	                	;080CAS
 RM00135404      	5.658       	            	                	;080CAS
 RM00135405      	5.645       	            	                	;080CAS
 RM00135406      	5.639       	            	                	;080CAS
 RM00135407      	5.628       	            	                	;080CAS
 RM00135408      	8.044       	            	                	;080CAS
 RM00135409      	7.253       	            	                	;080CAS
 RM00135410      	6.606       	            	                	;080CAS
 RM00135411      	6.318       	            	                	;080CAS
 RM00135412      	6.48        	            	                	;080CAS
 RM00135413      	6.358       	            	                	;080CAS
 RM00135414      	6.398       	            	                	;080CAS
 RM00135415      	6.44        	            	                	;080CAS
 RM00135416      	6.277       	            	                	;080CAS
 RM00135417      	6.236       	            	                	;080CAS
 RM00135418      	6.091       	            	                	;080CAS
 RM00135419      	6.163       	            	                	;080CAS
 RM00135420      	6.23        	            	                	;080CAS
 RM00135741      	11.892      	            	                	;080CAS
 RM00135744      	10.325      	            	                	;080CAS
 RM00135746      	12.4        	            	                	;080CAS
 RM00135747      	12.4        	            	                	;080CAS
 RM00135749      	7.45        	            	                	;080CAS
 RM00135750      	8.312       	            	                	;080CAS
 RM00135751      	7.438       	            	                	;080CAS
 RM00135752      	8.07        	            	                	;080CAS
 RM00135754      	7.809       	            	                	;080CAS
 RM00135755      	7.246       	            	                	;080CAS
 RM00135756      	7.133       	            	                	;080CAS
 RM00135757      	7.127       	            	                	;080CAS
 RM00135758      	7.088       	            	                	;080CAS
 RM00135759      	6.992       	            	                	;080CAS
 RM00135760      	7.343       	            	                	;080CAS
 RM00135761      	7.398       	            	                	;080CAS
 RM00135762      	7.342       	            	                	;080CAS
 RM00135763      	7.242       	            	                	;080CAS
 RM00135764      	7.079       	            	                	;080CAS
 RM00135830      	10.463      	            	                	;080CAS
 RM00135833      	12.4        	            	                	;080CAS
 RM00135834      	9.959       	            	                	;080CAS
 RM00135835      	9.238       	            	                	;080CAS
 RM00135836      	8.28        	            	                	;080CAS
 RM00135837      	8.099       	            	                	;080CAS
 RM00135840      	6.839       	            	                	;080CAS
 RM00135841      	6.791       	            	                	;080CAS
 RM00135846      	8.163       	            	                	;080CAS
 RM00135848      	8.075       	            	                	;080CAS
 RM00135849      	8.079       	            	                	;080CAS
 RM00135850      	8.011       	            	                	;080CAS
 RM00136606      	5.951       	            	                	;080CAS
 RM00136607      	5.245       	            	                	;080CAS
 RM00136608      	5.259       	            	                	;080CAS
 RM00136609      	5.278       	            	                	;080CAS
 RM00136610      	6.57        	            	                	;080CAS
 RM00136611      	5.909       	            	                	;080CAS
 RM00136612      	6.028       	            	                	;080CAS
 RM00136613      	6.57        	            	                	;080CAS
 RM00136614      	6.173       	            	                	;080CAS
 RM00136615      	6.155       	            	                	;080CAS
 RM00136616      	6.57        	            	                	;080CAS
 RM00136617      	5.585       	            	                	;080CAS
 RM00136618      	5.595       	            	                	;080CAS
 RM00136619      	5.562       	            	                	;080CAS
 RM00136620      	5.571       	            	                	;080CAS
 RM00136621      	5.655       	            	                	;080CAS
 RM00136622      	5.49        	            	                	;080CAS
 RM00136623      	5.617       	            	                	;080CAS
 RM00136624      	5.607       	            	                	;080CAS
 RM00136625      	5.489       	            	                	;080CAS
 RM00136626      	5.422       	            	                	;080CAS
 RM00136627      	5.421       	            	                	;080CAS
 RM00136628      	5.403       	            	                	;080CAS
 RM00136629      	5.388       	            	                	;080CAS
 RM00136630      	6.204       	            	                	;080CAS
 RM00136631      	5.442       	            	                	;080CAS
 RM00136632      	5.322       	            	                	;080CAS
 RM00136633      	5.341       	            	                	;080CAS
 RM00136634      	5.054       	            	                	;080CAS
 RM00136635      	5.292       	            	                	;080CAS
 RM00136636      	5.279       	            	                	;080CAS
 RM00136637      	5.19        	            	                	;080CAS
 RM00136638      	5.19        	            	                	;080CAS
 RM00136639      	5.147       	            	                	;080CAS
 RM00136640      	5.157       	            	                	;080CAS
 RM00136641      	5.132       	            	                	;080CAS
 RM00136642      	5.336       	            	                	;080CAS
 RM00136643      	5.372       	            	                	;080CAS
 RM00136644      	5.334       	            	                	;080CAS
 RM00136645      	4.88        	            	                	;080CAS
 RM00136646      	4.887       	            	                	;080CAS
 RM00136647      	4.822       	            	                	;080CAS
 RM00136648      	5.752       	            	                	;080CAS
 RM00136649      	5.927       	            	                	;080CAS
 RM00136650      	5.948       	            	                	;080CAS
 RM00136651      	5.628       	            	                	;080CAS
 RM00136652      	5.734       	            	                	;080CAS
 RM00136653      	5.607       	            	                	;080CAS
 RM00136654      	5.721       	            	                	;080CAS
 RM00136655      	5.677       	            	                	;080CAS
 RM00136656      	5.944       	            	                	;080CAS
 RM00136657      	5.955       	            	                	;080CAS
 RM00136658      	5.281       	            	                	;080CAS
 RM00136659      	5.293       	            	                	;080CAS
 RM00136661      	5.31        	            	                	;080CAS
 RM00136662      	5.145       	            	                	;080CAS
 RM00136663      	5.22        	            	                	;080CAS
 RM00136664      	5.213       	            	                	;080CAS
 RM00136665      	5.121       	            	                	;080CAS
 RM00136666      	5.093       	            	                	;080CAS
 RM00136667      	5.513       	            	                	;080CAS
 RM00136668      	6.939       	            	                	;080CAS
 RM00136669      	6.339       	            	                	;080CAS
 RM00136670      	6.478       	            	                	;080CAS
 RM00136671      	6.569       	            	                	;080CAS
 RM00136672      	6.222       	            	                	;080CAS
 RM00136673      	6.358       	            	                	;080CAS
 RM00136674      	6.291       	            	                	;080CAS
 RM00136675      	6.064       	            	                	;080CAS
 RM00136676      	6.176       	            	                	;080CAS
 RM00136677      	6.546       	            	                	;080CAS
 RM00136678      	6.453       	            	                	;080CAS
 RM00136681      	9.95        	            	                	;080CAS
 RM00136684      	6.637       	            	                	;080CAS
 RM00136685      	7.428       	            	                	;080CAS
 RM00136686      	7.084       	            	                	;080CAS
 RM00136687      	7.581       	            	                	;080CAS
 RM00136688      	8.081       	            	                	;080CAS
 RM00136689      	8.11        	            	                	;080CAS
 RM00136690      	8.098       	            	                	;080CAS
 RM00136691      	7.899       	            	                	;080CAS
 RM00136692      	7.788       	            	                	;080CAS
 RM00136693      	7.72        	            	                	;080CAS
 RM00136694      	7.72        	            	                	;080CAS
 RM00136695      	7.702       	            	                	;080CAS
 RM00136696      	7.062       	            	                	;080CAS
 RM00136697      	7.129       	            	                	;080CAS
 RM00136698      	7.231       	            	                	;080CAS
 RM00136699      	7.366       	            	                	;080CAS
 RM00136700      	7.337       	            	                	;080CAS
 RM00136701      	7.669       	            	                	;080CAS
 RM00136702      	7.279       	            	                	;080CAS
 RM00136703      	6.472       	            	                	;080CAS
 RM00136704      	6.434       	            	                	;080CAS
 RM00136705      	6.821       	            	                	;080CAS
 RM00136706      	6.789       	            	                	;080CAS
 RM00136708      	6.346       	            	                	;080CAS
 RM00136709      	6.494       	            	                	;080CAS
 RM00136710      	6.592       	            	                	;080CAS
 RM00136711      	10.228      	            	                	;080CAS
 RM00136712      	10.302      	            	                	;080CAS
 RM00136723      	6.046       	            	                	;080CAS
 RM00136724      	6.125       	            	                	;080CAS
 RM00136725      	6.071       	            	                	;080CAS
 RM00136726      	8.698       	            	                	;080CAS
 RM00136727      	6.415       	            	                	;080CAS
 RM00136728      	6.28        	            	                	;080CAS
 RM00136729      	6.15        	            	                	;080CAS
 RM00136730      	6.19        	            	                	;080CAS
 RM00136731      	5.041       	            	                	;080CAS
 RM00136732      	4.946       	            	                	;080CAS
 RM00136733      	4.807       	            	                	;080CAS
 RM00136734      	4.905       	            	                	;080CAS
 RM00136735      	4.781       	            	                	;080CAS
 RM00136736      	4.746       	            	                	;080CAS
 RM00136737      	4.17        	            	                	;080CAS
 RM00136738      	4.622       	            	                	;080CAS
 RM00136739      	4.191       	            	                	;080CAS
 RM00136740      	4.17        	            	                	;080CAS
 RM00136742      	5.955       	            	                	;080CAS
 RM00136743      	5.986       	            	                	;080CAS
 RM00136744      	6.051       	            	                	;080CAS
 RM00136745      	5.461       	            	                	;080CAS
 RM00136749      	5.064       	            	                	;080CAS
 RM00136773      	4.17        	            	                	;080CAS
 RM00136777      	4.17        	            	                	;080CAS
 RM00136820      	5.79        	            	                	;080CAS
 RM00136821      	5.926       	            	                	;080CAS
 RM00136822      	5.983       	            	                	;080CAS
 RM00136823      	5.518       	            	                	;080CAS
 RM00136824      	5.503       	            	                	;080CAS
 RM00136825      	5.349       	            	                	;080CAS
 RM00136826      	5.339       	            	                	;080CAS
 RM00136827      	5.546       	            	                	;080CAS
 RM00136828      	5.158       	            	                	;080CAS
 RM00136829      	4.609       	            	                	;080CAS
 RM00136830      	4.47        	            	                	;080CAS
 RM00136831      	4.47        	            	                	;080CAS
 RM00136832      	5.132       	            	                	;080CAS
 RM00136834      	5.271       	            	                	;080CAS
 RM00136835      	5.078       	            	                	;080CAS
 RM00136836      	4.61        	            	                	;080CAS
 RM00136837      	4.607       	            	                	;080CAS
 RM00136838      	4.281       	            	                	;080CAS
 RM00136839      	4.363       	            	                	;080CAS
 RM00138597      	6.24        	            	                	;080CAS
 RM00138598      	6.172       	            	                	;080CAS
 RM00138599      	5.983       	            	                	;080CAS
 RM00138600      	5.831       	            	                	;080CAS
 RM00138601      	5.608       	            	                	;080CAS
 RM00138602      	5.693       	            	                	;080CAS
 RM00138604      	5.572       	            	                	;080CAS
 RM00138605      	5.568       	            	                	;080CAS
 RM00138606      	5.458       	            	                	;080CAS
 RM00138607      	5.03        	            	                	;080CAS
 RM00138608      	5.03        	            	                	;080CAS
 RM00138609      	5.008       	            	                	;080CAS
 RM00138611      	4.86        	            	                	;080CAS
 RM00141278      	6.793       	            	                	;080CAS
 RM00141288      	5.179       	            	                	;080CAS
 RM00141310      	5.121       	            	                	;080CAS
 RM00141344      	6.28        	            	                	;080CAS
 RM00141345      	7.721       	            	                	;080CAS
 RM00141346      	7.06        	            	                	;080CAS
 RM00141347      	7.501       	            	                	;080CAS
 RM00141365      	5.508       	            	                	;080CAS
 RM00141406      	4.17        	            	                	;080CAS
 RM00141414      	4.68        	            	                	;080CAS
 RM00141427      	12.797      	            	                	;080CAS
 RM00141428      	12.821      	            	                	;080CAS
 RM00141440      	4.17        	            	                	;080CAS
 RM00141441      	4.17        	            	                	;080CAS
 RM00141487      	7.108       	            	                	;080CAS
 RM00141502      	5.711       	            	                	;080CAS
 RM00141541      	4.853       	            	                	;080CAS
 RM00141558      	6.915       	            	                	;080CAS
 RM00141579      	5.439       	            	                	;080CAS
 RM00141580      	5.494       	            	                	;080CAS
 RM00141582      	6.177       	            	                	;080CAS
 RM00141610      	5.929       	            	                	;080CAS
 RM00141611      	5.518       	            	                	;080CAS
 RM00141618      	4.289       	            	                	;080CAS
 RM00141629      	6.912       	            	                	;080CAS
 RM00141647      	5.94        	            	                	;080CAS
 RM00141665      	4.824       	            	                	;080CAS
 RM00141671      	4.259       	            	                	;080CAS
 RM00141795      	6.631       	            	                	;080CAS
 RM00141798      	6.34        	            	                	;080CAS
 RM00141898      	8.66        	            	                	;080CAS
 RM00202503      	8.206       	            	                	;080CAS
 RM00202510      	7.735       	            	                	;080CAS
 RM00202511      	7.371       	            	                	;080CAS
 RM00202576      	8.179       	            	                	;080CAS
 RM00202577      	8.215       	            	                	;080CAS
 RM00202579      	7.429       	            	                	;080CAS
 RM00206775      	7.458       	            	                	;080CAS
 RM00206776      	6.976       	            	                	;080CAS
 RM00206782      	12.075      	            	                	;080CAS
 RM00206783      	8.565       	            	                	;080CAS
 RM00206784      	9.671       	            	                	;080CAS
 RM00206785      	11.276      	            	                	;080CAS
 RM00207522      	11.421      	            	                	;080CAS
 RM00211094      	9.149       	            	                	;080CAS
 RM00211096      	8.258       	            	                	;080CAS
 RM00211114      	6.815       	            	                	;080CAS
 RM00211133      	9.7         	            	                	;080CAS
 RM00211167      	6.147       	            	                	;080CAS
 RM00211168      	6.033       	            	                	;080CAS
 RM00211169      	6.033       	            	                	;080CAS
 RM00211196      	8.867       	            	                	;080CAS
 RM00211206      	7.778       	            	                	;080CAS
 RM00211248      	8.024       	            	                	;080CAS
 RM00211267      	8.255       	            	                	;080CAS
 RM00211268      	8.66        	            	                	;080CAS
 RM00211269      	8.66        	            	                	;080CAS
 RM00211270      	8.66        	            	                	;080CAS
 RM00211272      	8.048       	            	                	;080CAS
 RM00211273      	7.203       	            	                	;080CAS
 RM00211274      	7.229       	            	                	;080CAS
 RM00211601      	7.116       	            	                	;080CAS
 RM00211630      	13.042      	            	                	;080CAS
 RM00211658      	5.76        	            	                	;080CAS
 RM00211780      	7.547       	            	                	;080CAS
 RM00211781      	6.737       	            	                	;080CAS
 RM00214724      	7.558       	            	                	;080CAS
 RM00214793      	7.663       	            	                	;080CAS
 RM00214796      	9.547       	            	                	;080CAS
 RM00214874      	7.548       	            	                	;080CAS
 RM00227740      	6.75        	            	                	;080CAS
 RM00227741      	7.177       	            	                	;080CAS
 RM00227784      	6.648       	            	                	;080CAS
 RM00227785      	6.466       	            	                	;080CAS
 RM00227800      	7.664       	            	                	;080CAS
 RM00227916      	9.122       	            	                	;080CAS
 RM00227917      	6.472       	            	                	;080CAS
 RM00227918      	8.66        	            	                	;080CAS
 RM00227948      	9.095       	            	                	;080CAS
 RM00227950      	8.104       	            	                	;080CAS
 RM00227973      	6.65        	            	                	;080CAS
 RM00231961      	6.115       	            	                	;080CAS
 RM00231985      	8.75        	            	                	;080CAS
 RM00366206      	7.949       	            	                	;080CAS
 RM00366207      	7.307       	            	                	;080CAS
 RM00366858      	6.95        	            	                	;080CAS
 RM00366981      	6.95        	            	                	;080CAS
 RM00368609      	6.273       	            	                	;080CAS
 RM00374490      	6.487       	            	                	;080CAS
 RM00374493      	6.712       	            	                	;080CAS
 RM00374498      	6.613       	            	                	;080CAS
 RM00374501      	6.654       	            	                	;080CAS
 RM00375516      	6.808       	            	                	;080CAS
 RM00375517      	7.007       	            	                	;080CAS
 RM00375518      	7.772       	            	                	;080CAS
 RM00375837      	5.265       	            	                	;080CAS
 RM00376625      	11.702      	            	                	;080CAS
 RM00376628      	12.147      	            	                	;080CAS
 RM00376882      	6.867       	            	                	;080CAS
 RM00376901      	6.932       	            	                	;080CAS
 RM00377362      	6.86        	            	                	;080CAS
 RM00377459      	9.859       	            	                	;080CAS
 RM00377460      	9.509       	            	                	;080CAS
 RM00377461      	9.786       	            	                	;080CAS
 RM00379756      	12.121      	            	                	;080CAS
 RM00380376      	6.76        	            	                	;080CAS
 RM00382171      	8.019       	            	                	;080CAS
 RM00382173      	7.931       	            	                	;080CAS
 RM00382174      	7.56        	            	                	;080CAS
 RM00382175      	7.053       	            	                	;080CAS
 RM00382257      	7.186       	            	                	;080CAS
 RM00382288      	7.218       	            	                	;080CAS
 RM00382289      	7.327       	            	                	;080CAS
 RM00382290      	7.192       	            	                	;080CAS
 RM00382291      	7.091       	            	                	;080CAS
 RM00382304      	6.37        	            	                	;080CAS
 RM00382324      	6.113       	            	                	;080CAS
 RM00382325      	6.083       	            	                	;080CAS
 RM00382361      	6.461       	            	                	;080CAS
 RM00382380      	5.266       	            	                	;080CAS
 RM00382381      	7.229       	            	                	;080CAS
 RM00382401      	6.29        	            	                	;080CAS
 RM00382405      	6.455       	            	                	;080CAS
 RM00399676      	7.849       	            	                	;080CAS
 RM00399685      	7.11        	            	                	;080CAS
 RM00399688      	10.262      	            	                	;080CAS
 RM00399859      	8.713       	            	                	;080CAS
 RM00399875      	8.493       	            	                	;080CAS
 RM00408035      	6.144       	            	                	;080CAS
 RM00413167      	9.618       	            	                	;080CAS
 RM00413168      	9.64        	            	                	;080CAS
 RM00413169      	8.919       	            	                	;080CAS
 RM00425173      	5.11        	            	                	;080CAS
 RM00425175      	5.117       	            	                	;080CAS
 RM00425211      	5.176       	            	                	;080CAS
 RM00438241      	5.112       	            	                	;080CAS
 RM00455227      	8.682       	            	                	;080CAS
 RM00455315      	8.67        	            	                	;080CAS
 RM00470723      	4.998       	            	                	;080CAS
 RM00471022      	8.579       	            	                	;080CAS
 RM00471310      	6.748       	            	                	;080CAS